8500-Node/IEEE8500_Reduced_Power_elem_kVA.txt

CIRCUIT ELEMENT POWER FLOW

(Power Flow into element from indicated Bus)

Power Delivery Elements

  Bus                Phase     kW     +j   kvar         kVA         PF

ELEMENT = "Vsource.SOURCE"
SOURCEBUS                1     -3721.3 +j     43.8     3721.6      -0.9999
SOURCEBUS                2     -3746.3 +j   -109.8     3747.9       0.9996
SOURCEBUS                3     -3755.0 +j    182.5     3759.5      -0.9988
   TERMINAL TOTAL ............-11222.6 +j    116.5    11223.2      -0.9999
SOURCEBUS                0         0.0 +j      0.0        0.0       1.0000
SOURCEBUS                0         0.0 +j      0.0        0.0       1.0000
SOURCEBUS                0         0.0 +j      0.0        0.0       1.0000
   TERMINAL TOTAL ............     0.0 +j      0.0        0.0       1.0000

ELEMENT = "Line._HVMV_SUB_LSB_HVMV_SUB_48332"
_HVMV_SUB_LSB            1      3702.9 +j   -299.0     3715.0      -0.9968
_HVMV_SUB_LSB            2      3727.6 +j   -149.0     3730.6      -0.9992
_HVMV_SUB_LSB            3      3736.2 +j   -442.9     3762.4      -0.9930
   TERMINAL TOTAL ............ 11166.7 +j   -890.9    11202.2      -0.9968
HVMV_SUB_48332           1     -3702.9 +j    299.0     3715.0      -0.9968
HVMV_SUB_48332           2     -3727.6 +j    149.0     3730.6      -0.9992
HVMV_SUB_48332           3     -3736.2 +j    442.9     3762.4      -0.9930
   TERMINAL TOTAL ............-11166.7 +j    890.9    11202.2      -0.9968

ELEMENT = "Line.HVMV_SUB_48332_R20185"
HVMV_SUB_48332           1      3702.7 +j   -299.1     3714.8      -0.9968
HVMV_SUB_48332           2      3727.6 +j   -149.0     3730.6      -0.9992
HVMV_SUB_48332           3      3732.6 +j   -443.8     3758.9      -0.9930
   TERMINAL TOTAL ............ 11163.0 +j   -891.8    11198.5      -0.9968
R20185                   1     -3678.6 +j    347.6     3695.0      -0.9956
R20185                   2     -3700.8 +j    201.0     3706.2      -0.9985
R20185                   3     -3717.5 +j    496.5     3750.5      -0.9912
   TERMINAL TOTAL ............-11096.9 +j   1045.1    11146.0      -0.9956

ELEMENT = "Line.N1136663_M1026695"
N1136663                 1       438.6 +j    100.0      449.8       0.9750
N1136663                 2       232.8 +j     39.1      236.1       0.9862
N1136663                 3       345.7 +j     70.7      352.8       0.9797
   TERMINAL TOTAL ............  1017.0 +j    209.9     1038.5       0.9794
M1026695                 1      -423.8 +j    -93.0      433.8       0.9768
M1026695                 2      -229.7 +j    -38.3      232.9       0.9864
M1026695                 3      -337.5 +j    -68.9      344.4       0.9798
   TERMINAL TOTAL ............  -990.9 +j   -200.2     1010.9       0.9802

ELEMENT = "Line.M1142843_REGXFMR_190_7361"
M1142843                 1       717.7 +j   -103.7      725.2      -0.9897
M1142843                 2       781.7 +j    -46.3      783.0      -0.9982
M1142843                 3       883.1 +j    -92.4      888.0      -0.9946
   TERMINAL TOTAL ............  2382.5 +j   -242.4     2394.8      -0.9949
REGXFMR_190_7361         1      -685.9 +j    120.2      696.4      -0.9850
REGXFMR_190_7361         2      -736.3 +j     65.4      739.2      -0.9961
REGXFMR_190_7361         3      -835.7 +j    122.7      844.7      -0.9894
   TERMINAL TOTAL ............ -2257.9 +j    308.3     2278.8      -0.9908

ELEMENT = "Line.M1142843_M1125994"
M1142843                 1      2413.0 +j    813.7     2546.5       0.9476
M1142843                 2      2463.5 +j    903.5     2624.0       0.9388
M1142843                 3      1882.6 +j    575.2     1968.5       0.9564
   TERMINAL TOTAL ............  6759.1 +j   2292.4     7137.3       0.9470
M1125994                 1     -2348.7 +j   -722.8     2457.4       0.9558
M1125994                 2     -2429.4 +j   -785.9     2553.3       0.9514
M1125994                 3     -1876.5 +j   -536.9     1951.8       0.9614
   TERMINAL TOTAL ............ -6654.5 +j  -2045.6     6961.8       0.9559

ELEMENT = "Line.R42247_M1142843"
R42247                   1      3325.8 +j    792.2     3418.8       0.9728
R42247                   2      3433.6 +j    917.5     3554.0       0.9661
R42247                   3      3223.1 +j    653.6     3288.7       0.9800
   TERMINAL TOTAL ............  9982.5 +j   2363.3    10258.4       0.9731
M1142843                 1     -3317.5 +j   -777.8     3407.5       0.9736
M1142843                 2     -3425.6 +j   -899.5     3541.7       0.9672
M1142843                 3     -3220.2 +j   -640.8     3283.3       0.9808
   TERMINAL TOTAL ............ -9963.3 +j  -2318.1    10229.4       0.9740

ELEMENT = "Line.190_8593_N1136663"
190_8593                 1      1595.9 +j    413.3     1648.5       0.9681
190_8593                 2      1534.8 +j    394.2     1584.6       0.9686
190_8593                 3      1395.9 +j    354.1     1440.1       0.9693
   TERMINAL TOTAL ............  4526.6 +j   1161.5     4673.2       0.9686
N1136663                 1     -1581.2 +j   -400.8     1631.2       0.9693
N1136663                 2     -1524.3 +j   -382.6     1571.6       0.9699
N1136663                 3     -1389.0 +j   -347.9     1431.9       0.9700
   TERMINAL TOTAL ............ -4494.5 +j  -1131.3     4634.7       0.9698

ELEMENT = "Line.M1108378_221_282819"
M1108378                 1       119.6 +j     30.0      123.3       0.9700
   TERMINAL TOTAL ............   119.6 +j     30.0      123.3       0.9700
221_282819               1      -119.6 +j    -30.0      123.3       0.9700
   TERMINAL TOTAL ............  -119.6 +j    -30.0      123.3       0.9700

ELEMENT = "Line.M1125994_REGXFMR_190_8581"
M1125994                 1      2031.9 +j    643.4     2131.4       0.9533
M1125994                 2      2067.0 +j    695.0     2180.8       0.9479
M1125994                 3      1648.8 +j    479.8     1717.2       0.9602
   TERMINAL TOTAL ............  5747.8 +j   1818.2     6028.5       0.9534
REGXFMR_190_8581         1     -1991.1 +j   -583.7     2074.9       0.9596
REGXFMR_190_8581         2     -2045.0 +j   -621.5     2137.4       0.9568
REGXFMR_190_8581         3     -1643.9 +j   -453.1     1705.2       0.9640
   TERMINAL TOTAL ............ -5680.0 +j  -1658.3     5917.2       0.9599

ELEMENT = "Line.M1125994_M1108378"
M1125994                 1       199.8 +j     50.1      206.0       0.9700
M1125994                 2       277.5 +j     69.7      286.1       0.9699
M1125994                 3        81.3 +j     20.4       83.8       0.9700
   TERMINAL TOTAL ............   558.6 +j    140.1      575.9       0.9700
M1108378                 1      -199.4 +j    -50.0      205.6       0.9700
M1108378                 2      -276.9 +j    -69.4      285.5       0.9700
M1108378                 3       -81.3 +j    -20.4       83.8       0.9700
   TERMINAL TOTAL ............  -557.6 +j   -139.7      574.9       0.9700

ELEMENT = "Line.190_8581_R42246"
190_8581                 1      1817.5 +j    536.7     1895.1       0.9591
190_8581                 2      1902.4 +j    571.7     1986.5       0.9577
190_8581                 3      1502.5 +j    409.5     1557.3       0.9648
   TERMINAL TOTAL ............  5222.5 +j   1517.8     5438.6       0.9603
R42246                   1     -1761.1 +j   -462.8     1820.9       0.9672
R42246                   2     -1868.6 +j   -475.3     1928.1       0.9691
R42246                   3     -1494.7 +j   -376.3     1541.3       0.9697
   TERMINAL TOTAL ............ -5124.4 +j  -1314.4     5290.3       0.9686

ELEMENT = "Line.R20185_R42247"
R20185                   1      3542.0 +j    -55.9     3542.4      -0.9999
R20185                   2      3597.8 +j     96.5     3599.1       0.9996
R20185                   3      3379.3 +j   -251.4     3388.7      -0.9972
   TERMINAL TOTAL ............ 10519.1 +j   -210.8    10521.2      -0.9998
R42247                   1     -3454.7 +j    213.1     3461.3      -0.9981
R42247                   2     -3509.7 +j     89.5     3510.8      -0.9997
R42247                   3     -3343.6 +j    402.1     3367.7      -0.9928
   TERMINAL TOTAL ............-10308.0 +j    704.7    10332.1      -0.9977

ELEMENT = "Line.M1026695_M1026657"
M1026695                 1       125.1 +j     31.5      129.0       0.9698
   TERMINAL TOTAL ............   125.1 +j     31.5      129.0       0.9698
M1026657                 1      -124.7 +j    -31.3      128.6       0.9700
   TERMINAL TOTAL ............  -124.7 +j    -31.3      128.6       0.9700

ELEMENT = "Line.R42246_REGXFMR_190_8593"
R42246                   1      1644.3 +j    436.4     1701.2       0.9665
R42246                   2      1556.1 +j    410.1     1609.2       0.9670
R42246                   3      1420.9 +j    365.7     1467.2       0.9684
   TERMINAL TOTAL ............  4621.2 +j   1212.2     4777.5       0.9673
REGXFMR_190_8593         1     -1626.7 +j   -421.3     1680.4       0.9681
REGXFMR_190_8593         2     -1544.0 +j   -396.8     1594.2       0.9685
REGXFMR_190_8593         3     -1412.7 +j   -358.5     1457.5       0.9693
   TERMINAL TOTAL ............ -4583.4 +j  -1176.6     4732.0       0.9686

ELEMENT = "Line.190_7361_R18242"
190_7361                 1       464.6 +j   -154.5      489.6      -0.9489
190_7361                 2       551.5 +j   -114.8      563.4      -0.9790
190_7361                 3       286.0 +j   -216.6      358.8      -0.7972
   TERMINAL TOTAL ............  1302.1 +j   -485.9     1389.8      -0.9369
R18242                   1      -449.7 +j    157.4      476.5      -0.9439
R18242                   2      -532.6 +j    123.1      546.6      -0.9743
R18242                   3      -280.7 +j    219.0      356.0      -0.7885
   TERMINAL TOTAL ............ -1263.0 +j    499.5     1358.2      -0.9299

ELEMENT = "Reactor.HVMV_SUB_HSB"
SOURCEBUS                1      3721.3 +j    -43.8     3721.6      -0.9999
SOURCEBUS                2      3746.3 +j    109.8     3747.9       0.9996
SOURCEBUS                3      3755.0 +j   -182.5     3759.5      -0.9988
   TERMINAL TOTAL ............ 11222.6 +j   -116.5    11223.2      -0.9999
HVMV_SUB_HSB             1     -3721.3 +j     86.0     3722.3      -0.9997
HVMV_SUB_HSB             2     -3746.3 +j    -67.1     3746.9       0.9998
HVMV_SUB_HSB             3     -3755.0 +j    225.5     3761.8      -0.9982
   TERMINAL TOTAL ............-11222.6 +j    244.4    11225.3      -0.9998

ELEMENT = "Transformer.HVMV_SUB"
HVMV_SUB_HSB             1      3721.3 +j    -86.0     3722.3      -0.9997
HVMV_SUB_HSB             2      3746.3 +j     67.1     3746.9       0.9998
HVMV_SUB_HSB             3      3755.0 +j   -225.5     3761.8      -0.9982
HVMV_SUB_HSB             0         0.0 +j      0.0        0.0       1.0000
   TERMINAL TOTAL ............ 11222.6 +j   -244.4    11225.3      -0.9998
REGXFMR_HVMV_SUB_LSB     1     -3702.9 +j    298.6     3714.9      -0.9968
REGXFMR_HVMV_SUB_LSB     2     -3727.6 +j    148.5     3730.5      -0.9992
REGXFMR_HVMV_SUB_LSB     3     -3736.2 +j    442.4     3762.3      -0.9931
REGXFMR_HVMV_SUB_LSB     0         0.0 +j      0.0        0.0       1.0000
   TERMINAL TOTAL ............-11166.7 +j    889.5    11202.1      -0.9968

ELEMENT = "Transformer.FEEDER_REGA"
REGXFMR_HVMV_SUB_LSB     1      3702.9 +j   -298.6     3714.9      -0.9968
REGXFMR_HVMV_SUB_LSB     0         0.0 +j      0.0        0.0       1.0000
   TERMINAL TOTAL ............  3702.9 +j   -298.6     3714.9      -0.9968
_HVMV_SUB_LSB            1     -3702.9 +j    299.0     3715.0      -0.9968
_HVMV_SUB_LSB            0         0.0 +j      0.0        0.0       1.0000
   TERMINAL TOTAL ............ -3702.9 +j    299.0     3715.0      -0.9968

ELEMENT = "Transformer.FEEDER_REGB"
REGXFMR_HVMV_SUB_LSB     2      3727.6 +j   -148.5     3730.5      -0.9992
REGXFMR_HVMV_SUB_LSB     0         0.0 +j      0.0        0.0       1.0000
   TERMINAL TOTAL ............  3727.6 +j   -148.5     3730.5      -0.9992
_HVMV_SUB_LSB            2     -3727.6 +j    149.0     3730.6      -0.9992
_HVMV_SUB_LSB            0         0.0 +j      0.0        0.0       1.0000
   TERMINAL TOTAL ............ -3727.6 +j    149.0     3730.6      -0.9992

ELEMENT = "Transformer.FEEDER_REGC"
REGXFMR_HVMV_SUB_LSB     3      3736.2 +j   -442.4     3762.3      -0.9931
REGXFMR_HVMV_SUB_LSB     0         0.0 +j      0.0        0.0       1.0000
   TERMINAL TOTAL ............  3736.2 +j   -442.4     3762.3      -0.9931
_HVMV_SUB_LSB            3     -3736.2 +j    442.9     3762.4      -0.9930
_HVMV_SUB_LSB            0         0.0 +j      0.0        0.0       1.0000
   TERMINAL TOTAL ............ -3736.2 +j    442.9     3762.4      -0.9930

ELEMENT = "Transformer.VREG2_A"
REGXFMR_190_8593         1      1614.2 +j    418.2     1667.5       0.9680
REGXFMR_190_8593         0         0.0 +j      0.0        0.0       1.0000
   TERMINAL TOTAL ............  1614.2 +j    418.2     1667.5       0.9680
190_8593                 1     -1614.2 +j   -417.8     1667.4       0.9681
190_8593                 0         0.0 +j      0.0        0.0       1.0000
   TERMINAL TOTAL ............ -1614.2 +j   -417.8     1667.4       0.9681

ELEMENT = "Transformer.VREG2_B"
REGXFMR_190_8593         2      1534.8 +j    394.4     1584.7       0.9685
REGXFMR_190_8593         0         0.0 +j      0.0        0.0       1.0000
   TERMINAL TOTAL ............  1534.8 +j    394.4     1584.7       0.9685
190_8593                 2     -1534.8 +j   -394.2     1584.6       0.9686
190_8593                 0         0.0 +j      0.0        0.0       1.0000
   TERMINAL TOTAL ............ -1534.8 +j   -394.2     1584.6       0.9686

ELEMENT = "Transformer.VREG2_C"
REGXFMR_190_8593         3      1412.7 +j    358.5     1457.5       0.9693
REGXFMR_190_8593         0         0.0 +j      0.0        0.0       1.0000
   TERMINAL TOTAL ............  1412.7 +j    358.5     1457.5       0.9693
190_8593                 3     -1412.7 +j   -358.3     1457.4       0.9693
190_8593                 0         0.0 +j      0.0        0.0       1.0000
   TERMINAL TOTAL ............ -1412.7 +j   -358.3     1457.4       0.9693

ELEMENT = "Transformer.VREG3_A"
REGXFMR_190_8581         1      1865.4 +j    552.1     1945.4       0.9589
REGXFMR_190_8581         0         0.0 +j      0.0        0.0       1.0000
   TERMINAL TOTAL ............  1865.4 +j    552.1     1945.4       0.9589
190_8581                 1     -1865.4 +j   -551.7     1945.3       0.9589
190_8581                 0         0.0 +j      0.0        0.0       1.0000
   TERMINAL TOTAL ............ -1865.4 +j   -551.7     1945.3       0.9589

ELEMENT = "Transformer.VREG3_B"
REGXFMR_190_8581         2      2022.0 +j    615.7     2113.6       0.9566
REGXFMR_190_8581         0         0.0 +j      0.0        0.0       1.0000
   TERMINAL TOTAL ............  2022.0 +j    615.7     2113.6       0.9566
190_8581                 2     -2021.9 +j   -615.2     2113.5       0.9567
190_8581                 0         0.0 +j      0.0        0.0       1.0000
   TERMINAL TOTAL ............ -2021.9 +j   -615.2     2113.5       0.9567

ELEMENT = "Transformer.VREG3_C"
REGXFMR_190_8581         3      1621.8 +j    447.6     1682.5       0.9640
REGXFMR_190_8581         0         0.0 +j      0.0        0.0       1.0000
   TERMINAL TOTAL ............  1621.8 +j    447.6     1682.5       0.9640
190_8581                 3     -1621.8 +j   -447.3     1682.4       0.9640
190_8581                 0         0.0 +j      0.0        0.0       1.0000
   TERMINAL TOTAL ............ -1621.8 +j   -447.3     1682.4       0.9640

ELEMENT = "Transformer.VREG4_A"
REGXFMR_190_7361         1       558.6 +j   -130.9      573.8      -0.9736
REGXFMR_190_7361         0         0.0 +j      0.0        0.0       1.0000
   TERMINAL TOTAL ............   558.6 +j   -130.9      573.8      -0.9736
190_7361                 1      -558.6 +j    130.9      573.8      -0.9736
190_7361                 0         0.0 +j      0.0        0.0       1.0000
   TERMINAL TOTAL ............  -558.6 +j    130.9      573.8      -0.9736

ELEMENT = "Transformer.VREG4_B"
REGXFMR_190_7361         2       633.9 +j    -93.9      640.8      -0.9892
REGXFMR_190_7361         0         0.0 +j      0.0        0.0       1.0000
   TERMINAL TOTAL ............   633.9 +j    -93.9      640.8      -0.9892
190_7361                 2      -633.9 +j     94.0      640.8      -0.9892
190_7361                 0         0.0 +j      0.0        0.0       1.0000
   TERMINAL TOTAL ............  -633.9 +j     94.0      640.8      -0.9892

ELEMENT = "Transformer.VREG4_C"
REGXFMR_190_7361         3       593.7 +j   -139.4      609.8      -0.9735
REGXFMR_190_7361         0         0.0 +j      0.0        0.0       1.0000
   TERMINAL TOTAL ............   593.7 +j   -139.4      609.8      -0.9735
190_7361                 3      -593.7 +j    139.5      609.9      -0.9735
190_7361                 0         0.0 +j      0.0        0.0       1.0000
   TERMINAL TOTAL ............  -593.7 +j    139.5      609.9      -0.9735

ELEMENT = "Capacitor.CAPBANK1A"
R42247                   1         0.0 +j  -1037.7     1037.7       1.0000
R42247                   2         0.0 +j  -1025.9     1025.9      -0.0000
R42247                   3        -0.0 +j  -1085.7     1085.7       0.0000
   TERMINAL TOTAL ............     0.0 +j  -3149.3     3149.3       1.0000
R42247                   0         0.0 +j      0.0        0.0       1.0000
R42247                   0         0.0 +j      0.0        0.0       1.0000
R42247                   0         0.0 +j      0.0        0.0       1.0000
   TERMINAL TOTAL ............     0.0 +j      0.0        0.0       1.0000

ELEMENT = "Capacitor.CAPBANK2A"
R20185                   1         0.0 +j   -326.1      326.1       1.0000
R20185                   2         0.0 +j   -323.4      323.4      -0.0000
R20185                   3         0.0 +j   -329.8      329.8       1.0000
   TERMINAL TOTAL ............     0.0 +j   -979.3      979.3      -0.0000
R20185                   0         0.0 +j      0.0        0.0       1.0000
R20185                   0         0.0 +j      0.0        0.0       1.0000
R20185                   0         0.0 +j      0.0        0.0       1.0000
   TERMINAL TOTAL ............     0.0 +j      0.0        0.0       1.0000

ELEMENT = "Capacitor.CAPBANK3"
R18242                   1         0.0 +j   -270.1      270.1       1.0000
R18242                   2         0.0 +j   -256.4      256.4       1.0000
R18242                   3         0.0 +j   -289.3      289.3       1.0000
   TERMINAL TOTAL ............     0.0 +j   -815.8      815.8       1.0000
R18242                   0         0.0 +j      0.0        0.0       1.0000
R18242                   0         0.0 +j      0.0        0.0       1.0000
R18242                   0         0.0 +j      0.0        0.0       1.0000
   TERMINAL TOTAL ............     0.0 +j      0.0        0.0       1.0000

= = = = = = = = = = = = = = = = = = =  = = = = = = = = = = =  = =

Power Conversion Elements

  Bus                Phase     kW   +j  kvar         kVA         PF

ELEMENT = "Load.LOAD__HVMV_SUB_LSB.1_MODEL_1"
_HVMV_SUB_LSB            1       0.0 +j    0.0        0.0       1.0000
_HVMV_SUB_LSB            0       0.0 +j    0.0        0.0       1.0000
  TERMINAL TOTAL  ............     0.0 +j      0.0        0.0       1.0000

ELEMENT = "Load.LOAD__HVMV_SUB_LSB.2_MODEL_1"
_HVMV_SUB_LSB            2       0.0 +j   -0.0        0.0      -0.0000
_HVMV_SUB_LSB            0       0.0 +j    0.0        0.0       1.0000
  TERMINAL TOTAL  ............     0.0 +j     -0.0        0.0      -0.0000

ELEMENT = "Load.LOAD__HVMV_SUB_LSB.3_MODEL_1"
_HVMV_SUB_LSB            3      -0.0 +j   -0.0        0.0       0.6581
_HVMV_SUB_LSB            0       0.0 +j    0.0        0.0       1.0000
  TERMINAL TOTAL  ............    -0.0 +j     -0.0        0.0       0.6581

ELEMENT = "Load.LOAD_HVMV_SUB_48332.1_MODEL_1"
HVMV_SUB_48332           1       0.2 +j    0.0        0.2       0.9799
HVMV_SUB_48332           0       0.0 +j    0.0        0.0       1.0000
  TERMINAL TOTAL  ............     0.2 +j      0.0        0.2       0.9799

ELEMENT = "Load.LOAD_HVMV_SUB_48332.2_MODEL_1"
HVMV_SUB_48332           2      -0.0 +j    0.0        0.0      -0.9922
HVMV_SUB_48332           0       0.0 +j    0.0        0.0       1.0000
  TERMINAL TOTAL  ............    -0.0 +j      0.0        0.0      -0.9922

ELEMENT = "Load.LOAD_HVMV_SUB_48332.3_MODEL_1"
HVMV_SUB_48332           3       3.6 +j    0.9        3.7       0.9699
HVMV_SUB_48332           0       0.0 +j    0.0        0.0       1.0000
  TERMINAL TOTAL  ............     3.6 +j      0.9        3.7       0.9699

ELEMENT = "Load.LOAD_M1026657.1_MODEL_1"
M1026657                 1     124.7 +j   31.3      128.6       0.9700
M1026657                 0       0.0 +j    0.0        0.0       1.0000
  TERMINAL TOTAL  ............   124.7 +j     31.3      128.6       0.9700

ELEMENT = "Load.LOAD_R18242.1_MODEL_1"
R18242                   1     449.7 +j  112.7      463.7       0.9700
R18242                   0       0.0 +j    0.0        0.0       1.0000
  TERMINAL TOTAL  ............   449.7 +j    112.7      463.7       0.9700

ELEMENT = "Load.LOAD_R18242.2_MODEL_1"
R18242                   2     532.6 +j  133.3      549.0       0.9701
R18242                   0       0.0 +j    0.0        0.0       1.0000
  TERMINAL TOTAL  ............   532.6 +j    133.3      549.0       0.9701

ELEMENT = "Load.LOAD_R18242.3_MODEL_1"
R18242                   3     280.7 +j   70.4      289.4       0.9700
R18242                   0       0.0 +j    0.0        0.0       1.0000
  TERMINAL TOTAL  ............   280.7 +j     70.4      289.4       0.9700

ELEMENT = "Load.LOAD_N1136663.1_MODEL_1"
N1136663                 1    1142.6 +j  300.8     1181.6       0.9671
N1136663                 0       0.0 +j    0.0        0.0       1.0000
  TERMINAL TOTAL  ............  1142.6 +j    300.8     1181.6       0.9671

ELEMENT = "Load.LOAD_N1136663.2_MODEL_1"
N1136663                 2    1291.5 +j  343.5     1336.4       0.9664
N1136663                 0       0.0 +j    0.0        0.0       1.0000
  TERMINAL TOTAL  ............  1291.5 +j    343.5     1336.4       0.9664

ELEMENT = "Load.LOAD_N1136663.3_MODEL_1"
N1136663                 3    1043.3 +j  277.2     1079.5       0.9665
N1136663                 0       0.0 +j    0.0        0.0       1.0000
  TERMINAL TOTAL  ............  1043.3 +j    277.2     1079.5       0.9665

ELEMENT = "Load.LOAD_M1142843.1_MODEL_1"
M1142843                 1     186.7 +j   67.8      198.7       0.9400
M1142843                 0       0.0 +j    0.0        0.0       1.0000
  TERMINAL TOTAL  ............   186.7 +j     67.8      198.7       0.9400

ELEMENT = "Load.LOAD_M1142843.2_MODEL_1"
M1142843                 2     180.4 +j   42.3      185.3       0.9736
M1142843                 0       0.0 +j    0.0        0.0       1.0000
  TERMINAL TOTAL  ............   180.4 +j     42.3      185.3       0.9736

ELEMENT = "Load.LOAD_M1142843.3_MODEL_1"
M1142843                 3     454.5 +j  158.0      481.1       0.9445
M1142843                 0       0.0 +j    0.0        0.0       1.0000
  TERMINAL TOTAL  ............   454.5 +j    158.0      481.1       0.9445

ELEMENT = "Load.LOAD_221_282819.1_MODEL_1"
221_282819               1     119.6 +j   30.0      123.3       0.9700
221_282819               0       0.0 +j    0.0        0.0       1.0000
  TERMINAL TOTAL  ............   119.6 +j     30.0      123.3       0.9700

ELEMENT = "Load.LOAD_R42247.1_MODEL_1"
R42247                   1     128.9 +j   32.4      132.9       0.9698
R42247                   0       0.0 +j    0.0        0.0       1.0000
  TERMINAL TOTAL  ............   128.9 +j     32.4      132.9       0.9698

ELEMENT = "Load.LOAD_R42247.2_MODEL_1"
R42247                   2      76.1 +j   18.9       78.5       0.9705
R42247                   0       0.0 +j    0.0        0.0       1.0000
  TERMINAL TOTAL  ............    76.1 +j     18.9       78.5       0.9705

ELEMENT = "Load.LOAD_R42247.3_MODEL_1"
R42247                   3     120.5 +j   30.0      124.2       0.9703
R42247                   0       0.0 +j    0.0        0.0       1.0000
  TERMINAL TOTAL  ............   120.5 +j     30.0      124.2       0.9703

ELEMENT = "Load.LOAD_REGXFMR_190_8593.1_MODEL_1"
REGXFMR_190_8593         1      12.5 +j    3.1       12.9       0.9700
REGXFMR_190_8593         0       0.0 +j    0.0        0.0       1.0000
  TERMINAL TOTAL  ............    12.5 +j      3.1       12.9       0.9700

ELEMENT = "Load.LOAD_REGXFMR_190_8593.2_MODEL_1"
REGXFMR_190_8593         2       9.2 +j    2.3        9.5       0.9700
REGXFMR_190_8593         0       0.0 +j    0.0        0.0       1.0000
  TERMINAL TOTAL  ............     9.2 +j      2.3        9.5       0.9700

ELEMENT = "Load.LOAD_190_8593.1_MODEL_1"
190_8593                 1      18.3 +j    4.6       18.8       0.9702
190_8593                 0       0.0 +j    0.0        0.0       1.0000
  TERMINAL TOTAL  ............    18.3 +j      4.6       18.8       0.9702

ELEMENT = "Load.LOAD_190_8593.2_MODEL_1"
190_8593                 2      -0.0 +j   -0.0        0.0       0.9935
190_8593                 0       0.0 +j    0.0        0.0       1.0000
  TERMINAL TOTAL  ............    -0.0 +j     -0.0        0.0       0.9935

ELEMENT = "Load.LOAD_190_8593.3_MODEL_1"
190_8593                 3      16.7 +j    4.2       17.3       0.9697
190_8593                 0       0.0 +j    0.0        0.0       1.0000
  TERMINAL TOTAL  ............    16.7 +j      4.2       17.3       0.9697

ELEMENT = "Load.LOAD_REGXFMR_190_7361.1_MODEL_1"
REGXFMR_190_7361         1     127.3 +j   10.7      127.7       0.9965
REGXFMR_190_7361         0       0.0 +j    0.0        0.0       1.0000
  TERMINAL TOTAL  ............   127.3 +j     10.7      127.7       0.9965

ELEMENT = "Load.LOAD_REGXFMR_190_7361.2_MODEL_1"
REGXFMR_190_7361         2     102.4 +j   28.6      106.3       0.9632
REGXFMR_190_7361         0       0.0 +j    0.0        0.0       1.0000
  TERMINAL TOTAL  ............   102.4 +j     28.6      106.3       0.9632

ELEMENT = "Load.LOAD_REGXFMR_190_7361.3_MODEL_1"
REGXFMR_190_7361         3     242.0 +j   16.7      242.6       0.9976
REGXFMR_190_7361         0       0.0 +j    0.0        0.0       1.0000
  TERMINAL TOTAL  ............   242.0 +j     16.7      242.6       0.9976

ELEMENT = "Load.LOAD_M1108378.1_MODEL_1"
M1108378                 1      79.8 +j   20.0       82.2       0.9700
M1108378                 0       0.0 +j    0.0        0.0       1.0000
  TERMINAL TOTAL  ............    79.8 +j     20.0       82.2       0.9700

ELEMENT = "Load.LOAD_M1125994.1_MODEL_1"
M1125994                 1     116.9 +j   29.3      120.5       0.9700
M1125994                 0       0.0 +j    0.0        0.0       1.0000
  TERMINAL TOTAL  ............   116.9 +j     29.3      120.5       0.9700

ELEMENT = "Load.LOAD_M1125994.2_MODEL_1"
M1125994                 2      84.8 +j   21.3       87.4       0.9700
M1125994                 0       0.0 +j    0.0        0.0       1.0000
  TERMINAL TOTAL  ............    84.8 +j     21.3       87.4       0.9700

ELEMENT = "Load.LOAD_M1125994.3_MODEL_1"
M1125994                 3     146.4 +j   36.7      150.9       0.9699
M1125994                 0       0.0 +j    0.0        0.0       1.0000
  TERMINAL TOTAL  ............   146.4 +j     36.7      150.9       0.9699

ELEMENT = "Load.LOAD_M1108378.2_MODEL_1"
M1108378                 2     276.9 +j   69.4      285.5       0.9700
M1108378                 0       0.0 +j    0.0        0.0       1.0000
  TERMINAL TOTAL  ............   276.9 +j     69.4      285.5       0.9700

ELEMENT = "Load.LOAD_M1108378.3_MODEL_1"
M1108378                 3      81.3 +j   20.4       83.8       0.9700
M1108378                 0       0.0 +j    0.0        0.0       1.0000
  TERMINAL TOTAL  ............    81.3 +j     20.4       83.8       0.9700

ELEMENT = "Load.LOAD_190_8581.1_MODEL_1"
190_8581                 1      47.9 +j   15.1       50.2       0.9539
190_8581                 0       0.0 +j    0.0        0.0       1.0000
  TERMINAL TOTAL  ............    47.9 +j     15.1       50.2       0.9539

ELEMENT = "Load.LOAD_190_8581.2_MODEL_1"
190_8581                 2     119.5 +j   43.6      127.2       0.9395
190_8581                 0       0.0 +j    0.0        0.0       1.0000
  TERMINAL TOTAL  ............   119.5 +j     43.6      127.2       0.9395

ELEMENT = "Load.LOAD_190_8581.3_MODEL_1"
190_8581                 3     119.3 +j   37.8      125.1       0.9533
190_8581                 0       0.0 +j    0.0        0.0       1.0000
  TERMINAL TOTAL  ............   119.3 +j     37.8      125.1       0.9533

ELEMENT = "Load.LOAD_R20185.1_MODEL_1"
R20185                   1     136.6 +j   34.3      140.9       0.9698
R20185                   0       0.0 +j    0.0        0.0       1.0000
  TERMINAL TOTAL  ............   136.6 +j     34.3      140.9       0.9698

ELEMENT = "Load.LOAD_R20185.2_MODEL_1"
R20185                   2     102.9 +j   26.0      106.2       0.9696
R20185                   0       0.0 +j    0.0        0.0       1.0000
  TERMINAL TOTAL  ............   102.9 +j     26.0      106.2       0.9696

ELEMENT = "Load.LOAD_R20185.3_MODEL_1"
R20185                   3     338.2 +j   84.8      348.7       0.9700
R20185                   0       0.0 +j    0.0        0.0       1.0000
  TERMINAL TOTAL  ............   338.2 +j     84.8      348.7       0.9700

ELEMENT = "Load.LOAD_M1026695.1_MODEL_1"
M1026695                 1     298.7 +j   61.5      305.0       0.9794
M1026695                 0       0.0 +j    0.0        0.0       1.0000
  TERMINAL TOTAL  ............   298.7 +j     61.5      305.0       0.9794

ELEMENT = "Load.LOAD_M1026695.2_MODEL_1"
M1026695                 2     229.7 +j   38.3      232.9       0.9864
M1026695                 0       0.0 +j    0.0        0.0       1.0000
  TERMINAL TOTAL  ............   229.7 +j     38.3      232.9       0.9864

ELEMENT = "Load.LOAD_M1026695.3_MODEL_1"
M1026695                 3     337.4 +j   68.9      344.4       0.9798
M1026695                 0       0.0 +j    0.0        0.0       1.0000
  TERMINAL TOTAL  ............   337.4 +j     68.9      344.4       0.9798

ELEMENT = "Load.LOAD_R42246.1_MODEL_1"
R42246                   1     116.9 +j   26.4      119.8       0.9753
R42246                   0       0.0 +j    0.0        0.0       1.0000
  TERMINAL TOTAL  ............   116.9 +j     26.4      119.8       0.9753

ELEMENT = "Load.LOAD_R42246.2_MODEL_1"
R42246                   2     312.5 +j   65.2      319.3       0.9789
R42246                   0       0.0 +j    0.0        0.0       1.0000
  TERMINAL TOTAL  ............   312.5 +j     65.2      319.3       0.9789

ELEMENT = "Load.LOAD_R42246.3_MODEL_1"
R42246                   3      73.8 +j   10.6       74.6       0.9898
R42246                   0       0.0 +j    0.0        0.0       1.0000
  TERMINAL TOTAL  ............    73.8 +j     10.6       74.6       0.9898

ELEMENT = "Load.LOAD_190_7361.1_MODEL_1"
190_7361                 1      94.1 +j   23.6       97.0       0.9700
190_7361                 0       0.0 +j    0.0        0.0       1.0000
  TERMINAL TOTAL  ............    94.1 +j     23.6       97.0       0.9700

ELEMENT = "Load.LOAD_190_7361.2_MODEL_1"
190_7361                 2      82.4 +j   20.8       85.0       0.9695
190_7361                 0       0.0 +j    0.0        0.0       1.0000
  TERMINAL TOTAL  ............    82.4 +j     20.8       85.0       0.9695

ELEMENT = "Load.LOAD_190_7361.3_MODEL_1"
190_7361                 3     307.7 +j   77.1      317.2       0.9700
190_7361                 0       0.0 +j    0.0        0.0       1.0000
  TERMINAL TOTAL  ............   307.7 +j     77.1      317.2       0.9700

ELEMENT = "Load.LOAD_REGXFMR_190_8581.1_MODEL_1"
REGXFMR_190_8581         1     125.7 +j   31.5      129.6       0.9699
REGXFMR_190_8581         0       0.0 +j    0.0        0.0       1.0000
  TERMINAL TOTAL  ............   125.7 +j     31.5      129.6       0.9699

ELEMENT = "Load.LOAD_REGXFMR_190_8581.2_MODEL_1"
REGXFMR_190_8581         2      23.1 +j    5.8       23.8       0.9696
REGXFMR_190_8581         0       0.0 +j    0.0        0.0       1.0000
  TERMINAL TOTAL  ............    23.1 +j      5.8       23.8       0.9696

ELEMENT = "Load.LOAD_REGXFMR_190_8581.3_MODEL_1"
REGXFMR_190_8581         3      22.1 +j    5.5       22.7       0.9701
REGXFMR_190_8581         0       0.0 +j    0.0        0.0       1.0000
  TERMINAL TOTAL  ............    22.1 +j      5.5       22.7       0.9701


Total Circuit Losses =  883.9 +j 2234.5
